24

C	2.6299695779	1.2054959458	-2.1787675410
C	0.8899695779	-2.0965040542	-1.4807675410
C	1.5329695779	0.1974959458	-1.8687675410
O	0.4119695779	0.5844959458	-1.5307675410
N	1.8279695779	-1.0975040542	-1.9687675410
H	3.0449695779	1.4434959458	-1.1997675410
H	2.7539695779	-1.3825040542	-2.2597675410
H	-0.0270304221	-2.0295040542	-2.0667675410
H	3.4206895779	0.8007459458	-2.8275655410
H	2.2103095779	2.1404559458	-2.5784435410
H	1.3078995779	-3.1100340542	-1.5706835410
H	0.6243595779	-1.8726440542	-0.4370525410
C	-1.3770304221	2.1514959458	1.2552324590
C	-1.3250304221	-1.6545040542	1.6162324590
C	-1.4850304221	-0.1745040542	1.9802324590
O	-2.0130304221	0.1504959458	3.0472324590
N	-1.0500304221	0.7314959458	1.1152324590
H	-0.6030304221	0.4224959458	0.2612324590
H	-1.3270304221	2.4494959458	2.3032324590
H	-2.3500304221	-2.0325040542	1.6122324590
H	-0.6575904221	2.7605259458	0.6882324590
H	-2.4032064221	2.3052059458	0.8900824590
H	-0.9084904221	-1.8620240542	0.6195224590
H	-0.7938904221	-2.1948940542	2.4136524590
