24

C	-2.9101233546	1.1953125863	-1.1582845253
C	0.7998766454	1.6703125863	-1.9522845253
C	-1.4641233546	0.8373125863	-1.4842845253
O	-1.1101233546	-0.3416874137	-1.5512845253
N	-0.6281233546	1.8553125863	-1.6782845253
H	-3.3971233546	0.3033125863	-0.7612845253
H	-1.0031233546	2.7993125863	-1.6672845253
H	0.9088766454	1.0143125863	-2.8192845253
H	-2.9566153546	2.0029315863	-0.4129045253
H	-3.4063643546	1.4875985863	-2.0954645253
H	1.2695246454	2.6351475863	-2.1942045253
H	1.3092596454	1.1688099863	-1.1162045253
C	-0.3321233546	-2.4326874137	1.3357154747
C	1.7808766454	0.7153125863	1.6407154747
C	1.4248766454	-0.7706874137	1.6297154747
O	2.2568766454	-1.6316874137	1.9277154747
N	0.1698766454	-1.0646874137	1.2997154747
H	-0.4811233546	-0.3046874137	1.1297154747
H	-0.0341233546	-2.8866874137	2.2837154747
H	2.8698766454	0.7923125863	1.6447154747
H	-1.4308723546	-2.4420054137	1.2841154747
H	0.1058266454	-3.0676064137	0.5514454747
H	1.3733456454	1.2200533863	0.7523754747
H	1.3834616454	1.1455479863	2.5718254747
