39

C	8.4382300000	0.0000000000	-1.4231941667
O	8.4382300000	1.1628638800	-1.4231941667
O	8.4382300000	-1.1628638800	-1.4231941667
C	2.3095780000	-3.1788620000	-2.1336940000
C	2.3095780000	-3.1788620000	-0.7126940000
C	2.3095780000	3.1788620000	-2.1336940000
C	2.3095780000	3.1788620000	-0.7126940000
C	3.1788620000	-2.3095780000	-4.2673890000
C	3.1788620000	-2.3095780000	-2.8463890000
C	3.1788620000	-2.3095780000	0.0000000000
C	3.1788620000	-2.3095780000	1.4210000000
C	3.1788620000	2.3095780000	-4.2673890000
C	3.1788620000	2.3095780000	-2.8463890000
C	3.1788620000	2.3095780000	0.0000000000
C	3.1788620000	2.3095780000	1.4210000000
C	3.7369760000	-1.2142170000	-4.9800830000
C	3.7369760000	-1.2142170000	-2.1336940000
C	3.7369760000	-1.2142170000	-0.7126940000
C	3.7369760000	-1.2142170000	2.1336940000
C	3.7369760000	1.2142170000	-4.9800830000
C	3.7369760000	1.2142170000	-2.1336940000
C	3.7369760000	1.2142170000	-0.7126940000
C	3.7369760000	1.2142170000	2.1336940000
C	3.9292900000	-0.0000000000	-4.2673890000
C	3.9292900000	-0.0000000000	-2.8463890000
C	3.9292900000	-0.0000000000	0.0000000000
C	3.9292900000	-0.0000000000	1.4210000000
H	1.4735732648	-3.6048274550	-2.6776392334
H	1.4735729697	-3.6048276054	-0.1687493379
H	1.4735732648	3.6048274550	-2.6776392334
H	1.4735729697	3.6048276054	-0.1687493379
H	2.5154045946	-2.9730354054	-4.8113333405
H	2.5154045946	-2.9730354054	1.9649443405
H	2.5154045946	2.9730354054	-4.8113333405
H	2.5154045946	2.9730354054	1.9649443405
H	3.7369760000	-1.2142170000	-6.0646229500
H	3.7369760000	-1.2142170000	3.2182339500
H	3.7369760000	1.2142170000	-6.0646229500
H	3.7369760000	1.2142170000	3.2182339500
