25

C	0.0000000000	0.0000000000	-3.9431598257
O	-1.1703020698	0.0000000000	-3.9431598257
O	1.1703020698	0.0000000000	-3.9431598257
C	0.0000000000	0.7237604499	0.6055559623
C	0.0000000000	1.4098776239	1.8513296344
C	0.0000000000	2.8174380517	1.8282910288
C	0.0000000000	3.4696275825	0.6143698575
C	0.0000000000	2.6977138127	-0.5607176471
N	0.0000000000	1.3707722140	-0.5830991670
C	0.0000000000	0.6815043548	3.0785897391
C	0.0000000000	-0.6815043554	3.0785897391
C	0.0000000000	-1.4098776244	1.8513296339
C	0.0000000000	-2.8174380517	1.8282910288
C	0.0000000000	-3.4696275825	0.6143698569
C	0.0000000000	-2.6977138127	-0.5607176476
N	0.0000000000	-1.3707722135	-0.5830991675
C	0.0000000000	-0.7237604499	0.6055559623
H	0.0000000000	3.3673848687	2.7624352964
H	0.0000000000	4.5497903559	0.5545997436
H	0.0000000000	3.1868235348	-1.5290055738
H	0.0000000000	1.2338918149	4.0114409908
H	0.0000000000	-1.2338918155	4.0114409908
H	0.0000000000	-3.3673848693	2.7624352954
H	0.0000000000	-4.5497903559	0.5545997431
H	0.0000000000	-3.1868235343	-1.5290055744
