15

C	0.0000000000	1.0273800001	4.5499999999
O	0.0000000000	2.1899941548	4.5259016762
O	0.0000000000	-0.1352341552	4.5740983241
C	1.3941028000	0.0000000000	0.0000000000
C	-1.3941028000	0.0000000000	0.0000000000
C	0.6970514003	-1.2073284404	0.0000000000
C	-0.6970514003	-1.2073284404	0.0000000000
C	-0.6970514003	1.2073284404	0.0000000000
C	0.6970514003	1.2073284404	0.0000000000
H	2.4761899802	0.0000000000	0.0000000000
H	-2.4761899802	0.0000000000	0.0000000000
H	1.2380949901	-2.1444434273	0.0000000000
H	-1.2380949901	-2.1444434273	0.0000000000
H	-1.2380949901	2.1444434273	0.0000000000
H	1.2380949901	2.1444434273	0.0000000000
