29

C	0.0000000000	0.0000000000	3.2000000000
H	0.0000000000	0.0000000000	2.1138210000
H	1.0240620000	0.0000000000	3.5620570000
H	-0.5120310000	-0.8868640000	3.5620570000
H	-0.5120310000	0.8868640000	3.5620570000
C	0.0000000000	-1.4038420155	0.0000000000
C	1.2203504862	-0.7203836810	0.0000000000
C	-1.2203504862	-0.7203836810	0.0000000000
C	2.4663376076	-1.4046912660	0.0000000000
C	-2.4663376076	-1.4046912660	0.0000000000
C	3.6502810784	-0.7091745315	0.0000000000
C	-3.6502810784	-0.7091745315	0.0000000000
C	0.0000000000	1.4038420155	0.0000000000
C	1.2203504862	0.7203836810	0.0000000000
C	-1.2203504862	0.7203836810	0.0000000000
C	2.4663376076	1.4046912660	0.0000000000
C	-2.4663376076	1.4046912660	0.0000000000
C	3.6502810784	0.7091745315	0.0000000000
C	-3.6502810784	0.7091745315	0.0000000000
H	0.0000000000	-2.4898726214	0.0000000000
H	0.0000000000	2.4898726214	0.0000000000
H	2.4658430078	-2.4889068453	0.0000000000
H	-2.4658430078	-2.4889068453	0.0000000000
H	2.4658430078	2.4889068453	0.0000000000
H	-2.4658430078	2.4889068453	0.0000000000
H	4.5910998977	-1.2446501441	0.0000000000
H	-4.5910998977	-1.2446501441	0.0000000000
H	4.5910998977	1.2446501441	0.0000000000
H	-4.5910998977	1.2446501440	0.0000000000
