24

C	0.3000000000	-1.6000000000	-1.3915000000
C	1.5050743494	-1.6000000000	-0.6957500000
C	1.5050743494	-1.6000000000	0.6957500000
C	0.3000000000	-1.6000000000	1.3915000000
C	-0.9050743494	-1.6000000000	0.6957500000
C	-0.9050743494	-1.6000000000	-0.6957500000
H	0.3000000000	-1.6000000000	-2.4715000000
H	2.4403817855	-1.6000000000	-1.2357500000
H	2.4403817855	-1.6000000000	1.2357500000
H	0.3000000000	-1.6000000000	2.4715000000
H	-1.8403817855	-1.6000000000	1.2357500000
H	-1.8403817855	-1.6000000000	-1.2357500000
C	-0.3000000000	1.6000000000	1.3915000000
C	0.9050743494	1.6000000000	0.6957500000
C	0.9050743494	1.6000000000	-0.6957500000
C	-0.3000000000	1.6000000000	-1.3915000000
C	-1.5050743494	1.6000000000	-0.6957500000
C	-1.5050743494	1.6000000000	0.6957500000
H	-0.3000000000	1.6000000000	2.4715000000
H	1.8403817855	1.6000000000	1.2357500000
H	1.8403817855	1.6000000000	-1.2357500000
H	-0.3000000000	1.6000000000	-2.4715000000
H	-2.4403817855	1.6000000000	-1.2357500000
H	-2.4403817855	1.6000000000	1.2357500000
