18

C	-1.3097497450	1.1801761730	-0.0251703410
O	-0.7253004380	2.1551476690	0.4527133460
N	-0.6656211560	0.0950546960	-0.4919944910
H	0.3545826620	0.0514481660	-0.4593092170
H	-1.1836270370	-0.6735996920	-0.8707560960
C	-2.8167193400	1.1559986490	-0.1106059750
H	-3.2206289490	1.2625414550	0.8930823860
H	-3.2094275380	0.2486340160	-0.5619000900
H	-3.1431581320	2.0165956330	-0.6888931150
C	2.4231177100	1.0564935780	0.1121696600
O	1.8386959470	0.0824731420	-0.3675613060
N	1.7790301460	2.1412368010	0.5800162140
H	0.7589247780	2.1856745850	0.5457148970
H	2.2970542120	2.9091980010	0.9601368640
C	3.9301168920	1.0807779580	0.1973947450
H	4.3219879560	1.9804274740	0.6645787550
H	4.3336730860	0.9932329210	-0.8083855640
H	4.2578956540	0.2102030540	0.7595750830
