18

C	-1.3097497450	1.1801761730	-0.0251703410
O	-0.7253004380	2.1551476690	0.4527133460
N	-0.6656211560	0.0950546960	-0.4919944910
H	0.3545826620	0.0514481660	-0.4593092170
H	-1.1836270370	-0.6735996920	-0.8707560960
C	-2.8167193400	1.1559986490	-0.1106059750
H	-3.2206289490	1.2625414550	0.8930823860
H	-3.2094275380	0.2486340160	-0.5619000900
H	-3.1431581320	2.0165956330	-0.6888931150
C	2.2377324330	1.0526494020	0.1006312760
O	1.6533106700	0.0786289660	-0.3790996900
N	1.5936448690	2.1373926250	0.5684778300
H	0.5735395010	2.1818304090	0.5341765130
H	2.1116689350	2.9053538250	0.9485984800
C	3.7447316150	1.0769337820	0.1858563610
H	4.1366026790	1.9765832980	0.6530403710
H	4.1482878090	0.9893887450	-0.8199239480
H	4.0725103770	0.2063588780	0.7480366990
