17

H	0.0021441940	0.3610434750	0.0297997090
C	0.0150205920	0.2747897380	1.1076480160
C	1.2276326580	0.2966550400	1.7946294270
C	1.2439588260	0.1837027910	3.1837039340
C	0.0479582130	0.0489150020	3.8864845830
C	-1.1651356540	0.0269543480	3.2002132810
C	-1.1818320830	0.1398286430	1.8103765870
H	2.1558079070	0.3991770370	1.2494415850
H	2.1849793440	0.1985985530	3.7161707610
H	0.0609346620	-0.0406727560	4.9640142520
H	-2.0932206020	-0.0786289590	3.7451250560
H	-2.1228454370	0.1232571190	1.2776457970
Br	-0.2901264790	-3.0510933350	1.9963843640
C	0.0281993610	-4.9460817850	1.9313165850
F	0.0571490290	-5.3693256460	0.6737769770
F	1.1901833650	-5.2408806110	2.5005898950
F	-0.9317879770	-5.6006316390	2.5726471520
